./script.sh: línia 6: ../../../../simplesim-3.0_ecxPISA/sim-outorder: El fitxer o directori no existeix
