bash: $'\E[200~sim-outorder': no s'ha trobat l'ordre
